data_3D
_audit_creation_date            2021-08-28
_audit_creation_method          P_cif.py

_symmetry_space_group_name_H-M  'P1'
_symmetry_Int_Tables_number     1
_symmetry_cell_setting          triclinic

_cell_length_a                  3.524
_cell_length_b                  3.524
_cell_length_c                  3.524
_cell_angle_alpha               90
_cell_angle_beta                90
_cell_angle_gamma               90

loop_
  _atom_site_label
  _atom_site_type_symbol
  _atom_site_fract_x
  _atom_site_fract_y
  _atom_site_fract_z
  _atom_site_U_iso_or_equiv
  _atom_site_adp_type
  _atom_site_occupancy
  Ni1   Ni     0.000000    0.000000    0.000000    0.005000 Uiso  1.0000
  Ni2   Ni     0.000000    0.500000    0.500000    0.005000 Uiso  1.0000
  Ni3   Ni     0.500000    0.000000    0.500000    0.005000 Uiso  1.0000
  Ni4   Ni     0.500000    0.500000    0.000000    0.005000 Uiso  1.0000
